6
Coordinates from ORCA-job PBEh-3c
  O   -0.27023797299304     -0.30966940280612     -0.04090539480848
  H   -0.68600329681995      0.31109309160119      0.56032031833336
  H   -0.19591792563666     -1.12844464408031      0.45281804482803
  O   2.49943124018529      0.64162797817367     -0.15325024988077
  H   1.58607698321803      0.33350244334040     -0.19038807685080
  H   2.74365497204632      0.79433773377118     -1.06555714162133
