12
Coordinates from ORCA-job PBEh-3c
  O   0.24931489233598     -1.02736749482460     -0.94562142263435
  H   1.17309157841048     -1.10033574889825     -1.19025312898898
  H   0.00679541050142     -0.08631090043284     -1.10846488796791
  O   -0.92028651291392      1.55703572632012      1.58834961870034
  H   -0.73664680108678      0.60083852331675      1.73962330623615
  H   -0.29547236705614      2.02895415221269      2.14100784505598
  O   -0.26726533643616     -1.04976474241226      1.69370328692636
  H   -0.02022906829439     -1.15071147841009      0.74515947802310
  H   -0.99504131604776     -1.65704668855762      1.83539751317152
  O   -0.39909534331288      1.58063440510185     -1.04993471479109
  H   -0.58756306474982      1.69656174275814     -0.08972605945222
  H   -1.21940227135001      1.78921960382611     -1.49950533427889
