15
Coordinates from ORCA-job PBEh-3c
  O   -0.78280063784720      1.95180963125381      0.82238694127254
  H   -0.59927695577088      1.69244777262737     -0.11391025004648
  H   -0.50632108406211      2.86611820283609      0.89374568549418
  O   1.61860784438151     -1.61617112671062      0.96537834315025
  H   1.19382233779193     -0.93558163661713      1.54308540043136
  H   1.19905227970105     -2.44583248975405      1.19794009984598
  O   1.28832905583054     -0.94441714891996     -1.58295768848623
  H   1.40194021310376     -1.22665111236695     -0.64192158606835
  H   2.17594097496761     -0.83507087351057     -1.92699025443661
  O   -0.20279179894869      1.25119610486449     -1.67385510994018
  H   0.37814171810828      0.45089582655441     -1.66342709504870
  H   -0.97614359499461      0.99718702576842     -2.17973883489885
  O   0.40531827156175      0.21145192925049      2.46508778097417
  H   1.00640337943972      0.74208587822234      2.98923365631440
  H   -0.07822170326265      0.84629341650184      1.88320721144254
