21
Coordinates from ORCA-job PBEh-3c
  O   0.22549039756410      1.81646190262023     -0.92392771359127
  H   0.61181504223219      2.65614169643537     -1.17690878705553
  H   0.89234020232442      1.34770129361825     -0.33102695020631
  O   0.36946551351807     -1.88348069628270     -0.37942184390419
  H   0.60677649278474     -2.76667869615802     -0.66526219237651
  H   -0.02952649628214     -1.43093701439154     -1.15999113363778
  O   -2.27718915980716      1.09070789020564     -0.07733295971980
  H   -1.42183428005986      1.51988326986509     -0.27386372769915
  H   -2.85256536812855      1.77387526151747      0.26881843477023
  O   -0.72635956045577     -0.40492039126394     -2.33600454866296
  H   -0.29966488460040      0.43906919248105     -2.10399269195215
  H   -1.64089829484979     -0.27203560997904     -2.06802767766133
  O   1.81481547104283      0.45021153021672      0.57757932461221
  H   1.45051995360627      0.50472095312272      1.49137723078393
  H   1.60114852340186     -0.44872153960955      0.28591176469078
  O   -1.42852276024523     -0.95378285760110      1.68443123569025
  H   -1.86530135115384     -0.27936091697183      1.13572939862288
  H   -0.89248108102785     -1.46236443137297      1.05701873951121
  O   0.48434139885698      0.44714895422144      2.92262526940893
  H   -0.28285835981717     -0.06675782413292      2.57099025308095
  H   0.83936650109632     -0.07300426654034      3.64457687529561
